Reuters
American Airlines Flight 77
Bibcode (identifier)
Construction of One World Trade Center
World Trade Center in popular culture
200 Liberty Street
Hijackers in the September 11 attacks
Project Rebirth
BRE Centre for Fire Safety Engineering
List of tenants in One World Trade Center
Borough of Manhattan Community College
Ideogram (sculpture)
Daniel Libeskind
United States government operations and exercises on September 11, 2001
Delta Air Lines Flight 1989
List of unsuccessful terrorist plots in the United States post-9/11
Killing of Osama bin Laden
Gastroesophageal reflux disease
Fire Dynamics Simulator
Lower Manhattan
40 Wall Street
Emery Roth
Stonycreek Township, Somerset County, Pennsylvania
The Falling Man
Stanley Praimnath
César Pelli
Casualty (person)
Jet fuel
ANSYS
Boeing 767
Marriott World Trade Center
Hdl (identifier)
1993 World Trade Center Bombing Memorial
Viscoelasticity
Austin J. Tobin Plaza
PATH (rail system)
Stairs
List of tallest demolished freestanding structures
Bent Propeller
Memorials and services for the September 11 attacks
4 World Trade Center
2 World Trade Center
Controlled Demolition, Inc.
National Institute of Standards and Technology
9/11 Commission Report
B-25 Empire State Building crash
Arup Group Limited
Freedom Tower Silver Dollar
The Bathtub
Chicago
Minoru Yamasaki
CiteSeerX (identifier)
Aircraft hijacking
Port Authority of New York and New Jersey
Pentagon Memorial
Chamfer
Chinatown, Manhattan
September 11 intelligence before the attacks
Sinusitis
Airport security repercussions due to the September 11 attacks
225 Liberty Street
Fire sprinkler system
Brookfield Place (New York City)
Reactions to the September 11 attacks
Phoenix Memo
Franz-Josef Ulm
Rudy Giuliani during the September 11 attacks
Mark Anthony Stroman
Petronas Towers
Disappearance of Sneha Anne Philip
Tribute in Light
Newark Liberty International Airport
Beechcraft Model 18
One World Trade Center
Willis Tower
PENTTBOM
5 World Trade Center
Manhattan
Westfield World Trade Center
New York Harbor
To the Struggle Against World Terrorism
U.S. government response to the September 11 attacks
University of California at Berkeley
THINK Team
New York State Office of Tax Enforcement
United Airlines Flight 175
National Council of Structural Engineers Associations
Wikimedia Commons
Christopher O. Ward
7 World Trade Center
British Broadcasting Company
Silverstein Properties
Welles Crowther
Tourist guy
W. Gene Corley
Shanksville, Pennsylvania
St. Nicholas Greek Orthodox Church
New York City Fire Department
Raising the Flag at Ground Zero
National September 11 Memorial & Museum
America's Response Monument
Mall at the World Trade Center
7 World Trade Center (1987–2001)
Park51
Planning of the September 11 attacks
Iraq War
David Rockefeller
Korean Air Flight 085
Geographic coordinate system
Radio communications during the September 11 attacks
Austin J. Tobin
Insurgency in Khyber Pakhtunkhwa
Emma E. Booker Elementary School
The Rising (memorial)
World Trade Center cross
ISSN (identifier)
Structural failure
Timeline beyond October following the September 11 attacks
List of books about the September 11 attacks
United States Environmental Protection Agency
Closings and cancellations following the September 11 attacks
World Trade Center (2001–present)
Abdolhassan Astaneh-Asl
Leslie E. Robertson
Fireproofing
Larry Silverstein
American Institute of Steel Construction
Take Back The Memorial
Daniel A. Nigro
90 West Street
Corbin Building
List of entertainment affected by the September 11 attacks
West Street pedestrian bridges
Art Deco
Operation Yellow Ribbon
International Freedom Center
Memory Foundations
Zdeněk Bažant
The 28 pages
United States Environmental Protection Agency September 11 attacks pollution controversy
Blind (sculpture)
Federal Bureau of Investigation
Council on Tall Buildings and Urban Habitat
Malaysia
Collapse of 7 World Trade Center
Three World Financial Center
Joint Inquiry into Intelligence Community Activities before and after the Terrorist Attacks of September 11, 2001
Port Authority Police Department
St. Nicholas Greek Orthodox Church (Manhattan)
World Trade Center station (PATH)
Postcards (memorial)
Murder of Balbir Singh Sodhi
New Civil Engineer
Deutsche Bank Building
1998 Bank of America robbery
Vehicular Security Center
Edna Cintrón
Killing of Ayman al-Zawahiri
United States Secret Service
200 Vesey Street
Cartoonists Remember 9/11
Hamburg cell
Federal Emergency Management Agency
Disappearance of Michele Anne Harris
David Childs
Truss
WUSA (TV)
Society of Fire Protection Engineers
John Skilling
One North End Avenue
Statics
One Liberty Plaza
List of victims of the September 11 attacks (A–G)
September 11 Digital Archive
Sky Gate, New York
ThinThread
War on terror
Dalmarnock tests
5 World Trade Center (1970–2001)
Bin Ladin Determined To Strike in US
Winter Garden Atrium
Asthma
Northwestern University
4 World Trade Center (1975–2001)
View from Williamsburg, Brooklyn, on Manhattan, 9/11
American Concrete Institute
WTC Cortlandt station
World Trade Center (1973–2001)
MIT
Cultural influence of the September 11 attacks
Motives for the September 11 attacks
Fulton Center
2 World Trade Center (1971–2001)
September 11 attacks
U.S. military response during the September 11 attacks
Health effects arising from the September 11 attacks
War in Afghanistan (2001–2021)
Killing of Henryk Siwiak
Douglas DC-8
Economic effects of the September 11 attacks
Logan International Airport
Artwork at the World Trade Center (1973–2001)
Stairwell A
New York State Museum
Larme Price
Boeing 707
Artwork at the World Trade Center (2001–present)
Empire State Building
Timeline for October following the September 11 attacks
Horizon (BBC TV series)
List of victims of the September 11 attacks (O–Z)
New York City Police Department
Times Books
The World Trade Center Tapestry
Timeline of the September 11 attacks
Trials related to the September 11 attacks
Eduardo Kausel
Structural integrity and failure
Fiterman Hall
Wayback Machine
CTLGroup
Timeline for September following the September 11 attacks
Al-Qaeda
Nelson Rockefeller
Lists of tenants in the World Trade Center (1973–2001)
1 World Trade Center
Osama bin Laden
Michael Arad
Financial assistance following the September 11 attacks
Barclay-Vesey Building
List of victims of the September 11 attacks (H–N)
New York State Office of Court Administration
Chambers Street–World Trade Center/Park Place/Cortlandt Street station
NIST World Trade Center Disaster Investigation
250 Vesey Street
Patriot Day
John F. Kennedy International Airport
Liberty Park
9/11 Commission
Media documentation of the September 11 attacks
White paper
World Trade Center Plaza Sculpture
Victims of Terrorist Attack on the Pentagon Memorial
Abolhassan Astaneh-Asl
Jersey Girls
Structural Engineers Association of New York
Simpson Gumpertz & Heger Inc.
Humor based on the September 11 attacks
Kuala Lumpur
6 World Trade Center
Rudi Dekkers
World Trade Center site
LS-DYNA
Casualties of the September 11 attacks
Alicia Esteve Head
Timeline for the day of the September 11 attacks
Posttraumatic stress disorder
Barclay–Vesey Building
Phoenix, Maryland
Asbestosis
List of comics about the September 11 attacks
OCLC (identifier)
Aftermath of the September 11 attacks
B-25 bomber
Empty Sky (memorial)
Artwork damaged or destroyed in the September 11 attacks
Impending Death
List of songs about the September 11 attacks
World Trade Center Health Program
World Trade Center Site Memorial Competition
American Society of Civil Engineers
9/11 conspiracy theories
9/11 Tribute Museum
University of Edinburgh
Criticism of the 9/11 Commission
Windows on the World
Twin Towers 2
S2CID (identifier)
Communication during the September 11 attacks
Clear Channel memorandum
List of buildings damaged or destroyed in the September 11 attacks
Post-9/11
Jose L. Torero
Responsibility for the September 11 attacks
Doi (identifier)
Fulton Street station (New York City Subway)
Flight 93 National Memorial
National Fire Protection Association
Zdeněk P. Bažant
Maritime response following the September 11 attacks
9-1-1
Construction of the World Trade Center
3 World Trade Center
Camp Speicher massacre
Perelman Performing Arts Center
90 Church Street
Dust Lady
Tube (structure)
ISBN (identifier)
Rescue and recovery effort after the September 11 attacks on the World Trade Center
United Airlines Flight 93
Survivors' Staircase
Operation Support
1 World Trade Center (1971–2001)
U.S. Department of Commerce
American Airlines Flight 11
130 Cedar Street
Asbestos
New York City Subway
List of cultural references to the September 11 attacks
The Pentagon
The Sphere
20th hijacker
Progressive collapse
Eastern Time Zone
200 West Street
1993 World Trade Center bombing
Detentions following the September 11 attacks
Fire pump
Dey Street Passageway
Composite construction
Alleged Saudi role in the September 11 attacks